
 &time_control
 run_days                            = 200,
 run_hours                           = 0,
 run_minutes                         = 0,
 run_seconds                         = 0,
 start_year                          = 0001, 0001, 0001,
 start_month                         = 01,   01,   01,
 start_day                           = 01,   01,   01,
 start_hour                          = 00,   00,   00,
 start_minute                        = 00,   00,   00,
 start_second                        = 00,   00,   00,
 end_year                            = 0002, 0001, 0001,
 end_month                           = 05,   01,   01,
 end_day                             = 21,   01,   01,
 end_hour                            = 00,   00,   00,
 end_minute                          = 120,  120,  120,
 end_second                          = 00,   00,   00,
 history_interval                    = 720,   10,   10,
 frames_per_outfile                  = 1000, 1000, 1000,
 restart                             = .false.
 restart_interval                    = 28800
 io_form_history                     = 2
 io_form_restart                     = 2
 io_form_input                       = 2
 io_form_boundary                    = 2
 frames_per_auxhist4                 =  124000000
 auxhist4_outname                    = "raindiag_d<domain>_<date>"
 auxhist4_interval                   = 60,
 debug_level                         = 0 
 diag_print                          = 0
 iofields_filename = "myoutfileds.txt"
 /

 &domains
 time_step                           = 20,
 time_step_fract_num                 = 0,
 time_step_fract_den                 = 1,
 max_dom                             = 1,
 s_we                                = 1,     1,     1,
 e_we                                = 64,    43,    43,
 s_sn                                = 1,     1,     1,
 e_sn                                = 64,    43,    43,
 s_vert                              = 1,     1,     1,
 e_vert                              = 50,    41,    41,
 dx                                  = 2000,  666.6666667, 222.2222222
 dy                                  = 2000,  666.6666667, 222.2222222
 ztop                                = 22000, 20000, 20000,
 grid_id                             = 1,     2,     3,
 parent_id                           = 0,     1,     2,
 i_parent_start                      = 0,     15,    15,
 j_parent_start                      = 0,     15,    15,
 parent_grid_ratio                   = 1,     3,     3,
 parent_time_step_ratio              = 1,     3,     3,
 feedback                            = 1,
 smooth_option                       = 0
 eta_levels = 1.000000, 0.994180, 0.986082, 0.975750, 0.963233, 0.948597,
0.931921, 0.913304, 0.892857, 0.870692, 0.846929, 0.821706,
0.795178, 0.767485, 0.738745, 0.709112, 0.678761, 0.647843,
0.616504, 0.584888, 0.553134, 0.521376, 0.489748, 0.458396,
0.427470, 0.397088, 0.367337, 0.338294, 0.310037, 0.282657,
0.256251, 0.230911, 0.206624, 0.183376, 0.161406, 0.140908,
0.121892, 0.104377, 0.088470, 0.074226, 0.061603, 0.050517,
0.040828, 0.032366, 0.024976, 0.018530, 0.012911, 0.008013,
0.003737, 0.000000,
 use_adaptive_time_step              = .true.  
/
 
 &rce_control
 rce_wtg_flag = 0, 0, 0
 vcord_opt = 1, 0, 0
 tao = 3.0
 relax_umean_opt = 1
 relax_umean_u = 6.0
 relax_umean_tscale = 60
 rce_wtg_diag=0
/

 &hs_control
 hs_lw_type = 1, 0, 0
 hs_sw_type = 1, 0, 0
 ssttsk = 301.15,
/

 &physics
 mp_physics                    =   2,     1,     1,
 ra_lw_physics                       = 31,    0,     0,
 ra_sw_physics                       = 32,     0,     0,
 radt                                = 0,    30,    30,
 sf_sfclay_physics                   = 1,     0,     0,
 sf_surface_physics                  = 0,     0,     0,
 bl_pbl_physics                      = 1,     0,     0,
 bldt                                = 0,     0,     0,
 cu_physics                          = 0,     0,     0,
 cudt                                = 5,     5,     5,
 isfflx                              = 1,
 ifsnow                              = 0,
 icloud                              = 1,
 num_soil_layers                     = 5,
 mp_zero_out                         = 0,
 /

 &fdda
 /

 &dynamics
 rk_ord                              = 3,
 diff_opt                            = 2,
 km_opt                              = 4,
 damp_opt                            = 3,
 zdamp                               = 5000.,  5000.,  5000.,
 dampcoef                            = 0.05,  0.003,  0.003
 khdif                               = 0,    500,    500,
 kvdif                               = 0,    0,    500,
 smdiv                               = 0.1,    0.1,    0.1,
 emdiv                               = 0.01,   0.01,   0.01,
 epssm                               = 0.1,    0.1,    0.1
 time_step_sound                     = 6,      6,      6,
 h_mom_adv_order                     = 5,      5,      5,
 v_mom_adv_order                     = 3,      3,      3,
 h_sca_adv_order                     = 5,      5,      5,
 v_sca_adv_order                     = 3,      3,      3,
 moist_adv_opt                       = 1,      1,      1,     
 scalar_adv_opt                      = 1,      1,      1,     
 chem_adv_opt                        = 1,      1,      1,     
 tke_adv_opt                         =1,      1,      1,     
 non_hydrostatic                     = .true., .true., .true.,
 mix_full_fields                     = .true., .true., .true.,
 /

 &bdy_control
 periodic_x                          = .true.,.false.,.false.,
 symmetric_xs                        = .false.,.false.,.false.,
 symmetric_xe                        = .false.,.false.,.false.,
 open_xs                             = .false., .false.,.false.,
 open_xe                             = .false., .false.,.false.,
 periodic_y                          = .true.,.false.,.false.,
 symmetric_ys                        = .false.,.false.,.false.,
 symmetric_ye                        = .false.,.false.,.false.,
 open_ys                             = .false., .false.,.false.,
 open_ye                             = .false., .false.,.false.,
 nested                              = .false., .true., .true.,
 /

 &grib2
 /

 &namelist_quilt
 nio_tasks_per_group = 0,
 nio_groups = 1,
 /

