
 &time_control
 run_days                            = 200,
 run_hours                           = 0,
 run_minutes                         = 0,
 run_seconds                         = 0,
 start_year                          = 0001, 0001, 0001,
 start_month                         = 01,   01,   01,
 start_day                           = 01,   01,   01,
 start_hour                          = 00,   00,   00,
 start_minute                        = 00,   00,   00,
 start_second                        = 00,   00,   00,
 end_year                            = 0002, 0001, 0001,
 end_month                           = 05,   01,   01,
 end_day                             = 21,   01,   01,
 end_hour                            = 00,   00,   00,
 end_minute                          = 120,  120,  120,
 end_second                          = 00,   00,   00,
 history_interval                    = 720,   10,   10,
 frames_per_outfile                  = 1000, 1000, 1000,
 restart                             = F 
 restart_interval                    = 28800
 io_form_history                     = 2
 io_form_restart                     = 2
 io_form_input                       = 2
 io_form_boundary                    = 2
 frames_per_auxhist4                 =  124000000
 auxhist4_outname                    = "raindiag_d<domain>_<date>"
 auxhist4_interval                   = 60,
 debug_level                         = 0 
 diag_print                          = 0
 iofields_filename = "myoutfileds.txt"
 /

 &domains
 time_step                           = 20,
 time_step_fract_num                 = 0,
 time_step_fract_den                 = 1,
 max_dom                             = 1,
 s_we                                = 1,     1,     1,
 e_we                                = 64,    43,    43,
 s_sn                                = 1,     1,     1,
 e_sn                                = 64,    43,    43,
 s_vert                              = 1,     1,     1,
 e_vert                              = 50,    41,    41,
 dx                                  = 2000,  666.6666667, 222.2222222
 dy                                  = 2000,  666.6666667, 222.2222222
 ztop                                = 22000, 20000, 20000,
 grid_id                             = 1,     2,     3,
 parent_id                           = 0,     1,     2,
 i_parent_start                      = 0,     15,    15,
 j_parent_start                      = 0,     15,    15,
 parent_grid_ratio                   = 1,     3,     3,
 parent_time_step_ratio              = 1,     3,     3,
 feedback                            = 1,
 smooth_option                       = 0
 eta_levels = 1.000000, 0.994180, 0.986082, 0.975750, 0.963233, 0.948597,
0.931921, 0.913304, 0.892857, 0.870692, 0.846929, 0.821706,
0.795178, 0.767485, 0.738745, 0.709112, 0.678761, 0.647843,
0.616504, 0.584888, 0.553134, 0.521376, 0.489748, 0.458396,
0.427470, 0.397088, 0.367337, 0.338294, 0.310037, 0.282657,
0.256251, 0.230911, 0.206624, 0.183376, 0.161406, 0.140908,
0.121892, 0.104377, 0.088470, 0.074226, 0.061603, 0.050517,
0.040828, 0.032366, 0.024976, 0.018530, 0.012911, 0.008013,
0.003737, 0.000000,
 use_adaptive_time_step              = .true.  
/

 &rce_control
 rce_wtg_flag = 1, 0, 0
 wadv_opt = 8
 vcord_opt = 1, 0, 0
 tao = 180
 qv_lateral_drawing_flag = F
 pblh_opt = 85000
 relax_umean_opt = 1
 relax_umean_u = 6.0
 relax_umean_tscale = 60
 rce_wtg_diag = 0
 nl_bg=49
 wavecoupling_opt = 1
 wavecoupling_topbc = 14000
 wavecoupling_dmpopt = 1
 wavenumber = 1e-6
 !wavenumber = 8.3776e-7
 wavedamping = 1.1574e-5
theta_bg= 299.9049,  299.9268,  299.9957,  300.0726,  300.1825,  300.4217,  300.9522,  301.7143,
 302.6014,  303.5909,  304.6762,  305.8567,  307.1302,  308.4857,  309.9051,  311.3817,
 312.9459,  314.6693,  316.5965,  318.6480,  320.6645,  322.6669,  324.6320,  326.5324,
 328.3384,  330.0307,  331.5980,  333.0302,  334.3145,  335.4417,  336.4262,  337.3147,
 338.2088,  339.2810,  340.8387,  343.4984,  348.1328,  355.3415,  365.1300,  376.7804,
 389.4045,  402.4375,  415.6312,  428.8390,  441.8753,  454.4703,  466.3184,  477.1343,
 486.6528,
qv_bg=  18.1380176,   17.8119254,   17.6908612,   17.5704356,   17.3372454,   16.7749574,   15.6947909,   14.5407189,
  13.5595230,   12.7008200,   11.8963398,   11.0966493,   10.2814042,    9.4607145,    8.6625614,    7.9088018,
   7.1883542,    6.4505847,    5.6554795,    4.8425630,    4.0503859,    3.2663974,    2.5618702,    1.9566858,
   1.4637917,    1.0752612,    0.7755339,    0.5461063,    0.3728238,    0.2454528,    0.1558490,    0.0970264,
   0.0596803,    0.0359391,    0.0211916,    0.0125540,    0.0080111,    0.0059180,    0.0049809,    0.0046070,
   0.0046016,    0.0048677,    0.0053414,    0.0059666,    0.0066830,    0.0074256,    0.0081346,    0.0087673,
   0.0092966,
prs_bg= 996.9088548,  990.2104906,  981.2378126,  970.1925711,  956.9513532,  941.7900184,  924.6616458,  905.7894137,
 885.1457618,  862.9730261,  839.3172903,  814.3911600,  788.2370910,  761.0781552,  732.9752650,  704.1764998,
 674.6903347,  644.8444917,  614.6039909,  584.2664050,  553.8010041,  523.5010033,  493.3556249,  463.6075655,
 434.3090479,  405.6020953,  377.5439666,  350.2070038,  323.6650778,  298.0123933,  273.3337557,  249.6625823,
 226.9868325,  205.4295215,  185.1769848,  166.3362311,  148.9067016,  132.9767313,  118.6007051,  105.7831349,
  94.4777145,   84.5759749,   75.9195476,   68.3590161,   61.7634129,   56.0106648,   50.9941449,   46.6165294,
  42.7996922,
z_bg=  25.0721420,   85.2485929,  165.3710300,  265.4341407,  385.4301117,  525.2741520,  684.8328489,  863.9727305,
1062.6629314, 1280.9402296, 1518.6785774, 1775.7054134, 2051.8988855, 2347.3082538, 2661.9274049, 2995.3937231,
3347.6170300, 3718.4137714, 4107.7258286, 4515.7596217, 4942.4753644, 5387.4836906, 5850.6369125, 6331.2039385,
6828.5339934, 7342.7106710, 7873.4451074, 8421.0829297, 8984.9028308, 9564.1208605, 10157.8518772, 10765.8915210,
11390.0167879, 12028.5320822, 12675.8080070, 13328.4732291, 13987.5905141, 14652.5038153, 15318.7240493, 15982.0383432,
16637.4285428, 17279.5887872, 17906.7267004, 18516.7314511, 19107.9978612, 19678.4441820, 20224.2869536, 20746.3451417,
21242.8224072,
/

 &hs_control
 hs_lw_type = 1, 0, 0
 hs_sw_type = 1, 0, 0
 ssttsk = 301.15,
/

 &physics
 mp_physics                    =   2,     1,     1,
 ra_lw_physics                       = 31,    0,     0,
 ra_sw_physics                       = 32,     0,     0,
 radt                                = 0,    30,    30,
 sf_sfclay_physics                   = 1,     0,     0,
 sf_surface_physics                  = 0,     0,     0,
 bl_pbl_physics                      = 1,     0,     0,
 bldt                                = 0,     0,     0,
 cu_physics                          = 0,     0,     0,
 cudt                                = 5,     5,     5,
 isfflx                              = 1,
 ifsnow                              = 0,
 icloud                              = 1,
 num_soil_layers                     = 5,
 mp_zero_out                         = 0,
 /

 &fdda
 /

 &dynamics
 rk_ord                              = 3,
 diff_opt                            = 2,
 km_opt                              = 4,
 damp_opt                            = 3,
 zdamp                               = 5000.,  5000.,  5000.,
 dampcoef                            = 0.05,  0.003,  0.003
 khdif                               = 0,    500,    500,
 kvdif                               = 0,    0,    500,
 smdiv                               = 0.1,    0.1,    0.1,
 emdiv                               = 0.01,   0.01,   0.01,
 epssm                               = 0.1,    0.1,    0.1
 time_step_sound                     = 6,      6,      6,
 h_mom_adv_order                     = 5,      5,      5,
 v_mom_adv_order                     = 3,      3,      3,
 h_sca_adv_order                     = 5,      5,      5,
 v_sca_adv_order                     = 3,      3,      3,
 moist_adv_opt                       = 1,      1,      1,     
 scalar_adv_opt                      = 1,      1,      1,     
 chem_adv_opt                        = 1,      1,      1,     
 tke_adv_opt                         =1,      1,      1,     
 non_hydrostatic                     = .true., .true., .true.,
 mix_full_fields                     = .true., .true., .true.,
 /

 &bdy_control
 periodic_x                          = .true.,.false.,.false.,
 symmetric_xs                        = .false.,.false.,.false.,
 symmetric_xe                        = .false.,.false.,.false.,
 open_xs                             = .false., .false.,.false.,
 open_xe                             = .false., .false.,.false.,
 periodic_y                          = .true.,.false.,.false.,
 symmetric_ys                        = .false.,.false.,.false.,
 symmetric_ye                        = .false.,.false.,.false.,
 open_ys                             = .false., .false.,.false.,
 open_ye                             = .false., .false.,.false.,
 nested                              = .false., .true., .true.,
 /

 &grib2
 /

 &namelist_quilt
 nio_tasks_per_group = 0,
 nio_groups = 1,
 /

